LAMMPS (10 Sep 2025 - Development - patch_10Sep2025-981-g265405703c-modified)

#-------------- INIT ---------------------
units		metal
dimension	3
boundary 	p p p
atom_style	atomic
variable 	dt equal 0.001

#---------------- ATOM DEFINITION -------------------
read_data	structure.lammps-data
Reading data file ...
  orthogonal box = (0 0 0) to (20.25 20.25 20.25)
  reading atoms ...
  500 atoms

mass 1 26.9815385 # Al
mass 2 6.94 # Li

pair_style grace pair_forces
[GRACE] TF version: 2.19.1
[GRACE] Pair forces are ON
[GRACE] Neighbour padding is ON, padding fraction: 0.01, max padding fraction before reduction: 0.2, max number of reduction(s): 10

pair_coeff      * * /home/users/lysogy36/PycharmProjects/GITHUB/grace-tutorial-fresh/3-foundation-models/3a-finetuning/seed/1/final_model Al Li
[GRACE] Loading /home/users/lysogy36/PycharmProjects/GITHUB/grace-tutorial-fresh/3-foundation-models/3a-finetuning/seed/1/final_model
[GRACE] Model loaded
[GRACE] Mapping LAMMPS atom type #1(Al) -> ACE species type #0
[GRACE] Mapping LAMMPS atom type #2(Li) -> ACE species type #1
[GRACE] Compute energy only function is available

neighbor	2.0 bin
neigh_modify	delay 0 every 1 check yes

# -------------------- min_dist --------------------
compute dist all pair/local dist
compute  min_dist all reduce  min c_dist inputs local
compute my_virial all centroid/stress/atom NULL virial

print "-------------- EQUILIBRATION eq ---------------------"

thermo_style custom step cpuremain temp pe c_min_dist fmax  press vol density pxx pyy pzz pxy pxz pyz
thermo_modify flush yes
reset_timestep	0
timestep $(dt)
timestep 0.0010000000000000000208

velocity all create 1000 12345 mom yes rot yes

# thermostat + barostat
fix eq all npt temp 500 500 0.1 iso 0 0 0.1

thermo	250

dump	eq_dump all custom 250 dump.eq.dump  id type element xu yu zu c_my_virial[*]
dump_modify eq_dump element Al Li

run	1000

CITE-CITE-CITE-CITE-CITE-CITE-CITE-CITE-CITE-CITE-CITE-CITE-CITE

Your simulation uses code contributions which should be cited:

- compute centroid/stress/atom for angles, impropers and dihedrals: doi:10.1103/PhysRevE.99.051301

@article{Surblys2019,
 title = {Application of Atomic Stress to Compute Heat Flux via Molecular
    Dynamics for Systems With Many-Body Interactions},
 author = {Surblys, Donatas and Matsubara, Hiroki and Kikugawa, Gota and Ohara, Taku},
 journal = {Physical Review~E},
 volume = {99},
 issue = {5},
 pages = {051301},
 year = {2019},
 doi = {10.1103/PhysRevE.99.051301},
 url = {https://link.aps.org/doi/10.1103/PhysRevE.99.051301}
}

- compute centroid/stress/atom for constrained dynamics: https://doi.org/10.1063/5.0070930

@article{Surblys2021,
 author = {Surblys, Donatas and Matsubara, Hiroki and Kikugawa, Gota and Ohara, Taku},
 journal = {Journal of Applied Physics},
 title = {Methodology and Meaning of Computing Heat Flux via Atomic Stress in Systems with
    Constraint Dynamics},
 volume = {130},
 number = {21},
 pages = {215104},
 year = {2021},
 doi = {10.1063/5.0070930},
 url = {https://doi.org/10.1063/5.0070930},
}

CITE-CITE-CITE-CITE-CITE-CITE-CITE-CITE-CITE-CITE-CITE-CITE-CITE

Step        CPULeft          Temp          PotEng       c_min_dist        Fmax          Press          Volume        Density          Pxx            Pyy            Pzz            Pxy            Pxz            Pyz
0   0              1000          -1837.2057      2.8637825      0.13105166     4036.9602      8303.7656      2.5976111      4122.7704      3998.939       3989.1711      107.14997      219.61251     -245.09485
Loop time of 21.912 on 1 procs for 1000 steps with 500 atoms

unfix 	eq
undump	eq_dump

write_data eq.lammps-data
System init for write_data ...

fix fix_print all print 1 "$(pe)" file eq.energy.dat
run 0
For more information see https://docs.lammps.org/err0028 (src/verlet.cpp:60)
-1801.8325642740585408
Step        CPULeft          Temp          PotEng       c_min_dist        Fmax          Press          Volume        Density          Pxx            Pyy            Pzz            Pxy            Pxz            Pyz
1000   0              519.37211     -1801.8326      2.4134713      1.9278769      480.66581      8564.1045      2.5186467      1411.0058     -377.53439      408.52603      1604.7344      542.46052      449.33549
Loop time of 3.374e-06 on 1 procs for 0 steps with 500 atoms

unfix fix_print

print "-------------- MDMC mdmc ---------------------"

reset_timestep	0
timestep $(dt)
timestep 0.0010000000000000000208
fix AlLi  all atom/swap 100 100 1021 500 ke yes types 1 2

# thermostat + barostat
fix mdmc_npt all npt temp 500 500 0.1 aniso 0 0 0.1

thermo_style custom step cpuremain temp pe fmax c_min_dist f_AlLi[2]  press vol density pxx pyy pzz pxy pxz pyz
thermo	500
thermo_modify flush yes
dump	mdmc_dump all custom 500 dump.mdmc.dump  id type element xu yu zu
dump_modify mdmc_dump element Al Li

run 50000
Step        CPULeft          Temp          PotEng          Fmax        c_min_dist     f_AlLi[2]        Press          Volume        Density          Pxx            Pyy            Pzz            Pxy            Pxz            Pyz
0   0              519.37211     -1801.8326      1.9278769      2.4134713      0              480.66581      8564.1045      2.5186467      1411.0058     -377.53439      408.52603      1604.7344      542.46052      449.33549
Averages over the last 35 of 70 rows, steps 17500 to 34500:
Temp PotEng Fmax c_min_dist f_AlLi[2] Press Volume Density Pxx Pyy Pzz Pxy Pxz Pyz
501.347 -1803.04 1.70121 2.45158 13226.9 104.925 8562.62 2.5191 406.489 -171.536 79.8231 -11.9438 171.368 -59.9981
