LAMMPS (10 Sep 2025 - Development - patch_10Sep2025-981-g265405703c-modified)
KOKKOS mode with Kokkos version 4.7.1 is enabled
  will use up to 1 GPU(s) per node
package kokkos
package kokkos newton on neigh half

#-------------- INIT ---------------------
units		metal
dimension	3
boundary 	p p p
atom_style	atomic
variable 	dt equal 0.001

#---------------- ATOM DEFINITION -------------------
read_data	structure.lammps-data
Reading data file ...
  orthogonal box = (0 0 0) to (20.25 20.25 20.25)
  reading atoms ...
  500 atoms

mass 1 26.9815385 # Al
mass 2 6.94 # Li

#---------------- FORCE FIELDS --------------------
pair_style 	grace/fs extrapolation
[GRACE/FS]
[GRACE-FS] Version: 2025.12.4p1
[GRACE-FS] Product evaluator is used
pair_coeff	* * /home/users/lysogy36/PycharmProjects/GITHUB/grace-tutorial-fresh/3-foundation-models/3b-distillation/seed/1/saved_model.yaml /home/users/lysogy36/PycharmProjects/GITHUB/grace-tutorial-fresh/3-foundation-models/3b-distillation/seed/1/saved_model.asi Al Li
[GRACE-FS] Loading /home/users/lysogy36/PycharmProjects/GITHUB/grace-tutorial-fresh/3-foundation-models/3b-distillation/seed/1/saved_model.yaml
[GRACE-FS] Supporting 2 elements: Al Li
[GRACE-FS] Number of functions per element: 205
[GRACE-FS] Mapping LAMMPS atom type #1(Al) -> ACE species type #0
[GRACE-FS] Mapping LAMMPS atom type #2(Li) -> ACE species type #1
[GRACE-FS] Loading ASI /home/users/lysogy36/PycharmProjects/GITHUB/grace-tutorial-fresh/3-foundation-models/3b-distillation/seed/1/saved_model.asi

fix gamma all pair 50 grace/fs gamma 1
compute max_gamma all reduce max f_gamma

neighbor	2.0 bin
neigh_modify	delay 0 every 1 check yes

# -------------------- min_dist --------------------
compute dist all pair/local dist
compute  min_dist all reduce  min c_dist inputs local
compute my_virial all centroid/stress/atom NULL virial

print "-------------- EQUILIBRATION eq ---------------------"
fix gamma all pair 250 grace/fs gamma 1
thermo_style custom step cpuremain temp pe c_min_dist fmax c_max_gamma press vol density pxx pyy pzz pxy pxz pyz
thermo_modify flush yes
reset_timestep	0
timestep $(dt)
timestep 0.0010000000000000000208

velocity all create 1000 12345 mom yes rot yes

# thermostat + barostat
fix eq all npt temp 500 500 0.1 iso 0 0 0.1

thermo	250

dump	eq_dump all custom 250 dump.eq.dump  id type element xu yu zu f_gamma c_my_virial[*]
dump_modify eq_dump element Al Li

run	1000

CITE-CITE-CITE-CITE-CITE-CITE-CITE-CITE-CITE-CITE-CITE-CITE-CITE

Your simulation uses code contributions which should be cited:

- KOKKOS package: https://doi.org/10.1145/3731599.3767498

@inproceedings{Johansson25,
 author = {A. Johansson and E. Weinberg and C. Trott and M. McCarthy and S. Moore},
 title = {{LAMMPS-KOKKOS}: {P}erformance Portable Molecular Dynamics Across Exascale Architectures},
 year = 2025,
 booktitle = {Proceedings of the SC '25 Workshops of the International Conference for High Performance Computing,
  Networking, Storage and Analysis},
 pages = {1217â€“1232},
}

- compute centroid/stress/atom for angles, impropers and dihedrals: doi:10.1103/PhysRevE.99.051301

@article{Surblys2019,
 title = {Application of Atomic Stress to Compute Heat Flux via Molecular
    Dynamics for Systems With Many-Body Interactions},
 author = {Surblys, Donatas and Matsubara, Hiroki and Kikugawa, Gota and Ohara, Taku},
 journal = {Physical Review~E},
 volume = {99},
 issue = {5},
 pages = {051301},
 year = {2019},
 doi = {10.1103/PhysRevE.99.051301},
 url = {https://link.aps.org/doi/10.1103/PhysRevE.99.051301}
}

- compute centroid/stress/atom for constrained dynamics: https://doi.org/10.1063/5.0070930

@article{Surblys2021,
 author = {Surblys, Donatas and Matsubara, Hiroki and Kikugawa, Gota and Ohara, Taku},
 journal = {Journal of Applied Physics},
 title = {Methodology and Meaning of Computing Heat Flux via Atomic Stress in Systems with
    Constraint Dynamics},
 volume = {130},
 number = {21},
 pages = {215104},
 year = {2021},
 doi = {10.1063/5.0070930},
 url = {https://doi.org/10.1063/5.0070930},
}

CITE-CITE-CITE-CITE-CITE-CITE-CITE-CITE-CITE-CITE-CITE-CITE-CITE

Step        CPULeft          Temp          PotEng       c_min_dist        Fmax       c_max_gamma       Press          Volume        Density          Pxx            Pyy            Pzz            Pxy            Pxz            Pyz
0   0              1000          -1837.5913      2.8637825      0.12778762     1.041833       1734.6677      8303.7656      2.5976111      1800.0064      1716.2174      1687.7793      220.62554      230.55251     -233.33668
Loop time of 2.70818 on 1 procs for 1000 steps with 500 atoms

unfix 	eq
undump	eq_dump

write_data eq.lammps-data
System init for write_data ...

fix fix_print all print 1 "$(pe)" file eq.energy.dat
run 0
For more information see https://docs.lammps.org/err0028 (src/verlet.cpp:60)
-1802.3428846424399126
Step        CPULeft          Temp          PotEng       c_min_dist        Fmax       c_max_gamma       Press          Volume        Density          Pxx            Pyy            Pzz            Pxy            Pxz            Pyz
1000   0              537.87111     -1802.3429      2.4354732      1.6285947      0.72691222     5498.7353      8558.7111      2.5202338      5141.6212      5842.681       5511.9038      697.75059      353.34569      1067.705
Loop time of 0.000281097 on 1 procs for 0 steps with 500 atoms

unfix fix_print

print "-------------- MDMC mdmc ---------------------"
fix gamma all pair 250 grace/fs gamma 1
reset_timestep	0
timestep $(dt)
timestep 0.0010000000000000000208
fix AlLi  all atom/swap 100 100 1021 500 ke yes types 1 2

# thermostat + barostat
fix mdmc_npt all npt temp 500 500 0.1 aniso 0 0 0.1

thermo_style custom step cpuremain temp pe fmax c_min_dist f_AlLi[2] c_max_gamma press vol density pxx pyy pzz pxy pxz pyz
thermo	500
thermo_modify flush yes
dump	mdmc_dump all custom 500 dump.mdmc.dump  id type element xu yu zu f_gamma c_my_virial[*]
dump_modify mdmc_dump element Al Li

run 50000
Step        CPULeft          Temp          PotEng          Fmax        c_min_dist     f_AlLi[2]     c_max_gamma       Press          Volume        Density          Pxx            Pyy            Pzz            Pxy            Pxz            Pyz
0   0              537.87111     -1802.3429      1.6285947      2.4354732      0              0.72691222     5498.7353      8558.7111      2.5202338      5141.6212      5842.681       5511.9038      697.75059      353.34569      1067.705
Averages over the last 51 of 101 rows, steps 25000 to 50000:
Temp PotEng Fmax c_min_dist f_AlLi[2] c_max_gamma Press Volume Density Pxx Pyy Pzz Pxy Pxz Pyz
501.251 -1802.51 1.63196 2.44744 14696.4 0.818891 52.0999 8621.96 2.50178 209.282 -342.189 289.207 -60.4309 -105.021 189.774
Loop time of 156.027 on 1 procs for 50000 steps with 500 atoms

unfix AlLi

unfix mdmc_npt
undump mdmc_dump

thermo_style custom step cpuremain temp pe fmax c_min_dist c_max_gamma press vol density pxx pyy pzz pxy pxz pyz
write_data mdmc.lammps-data
System init for write_data ...

fix fix_print all print 1 "$(pe)" file mdmc.energy.dat
run 0
For more information see https://docs.lammps.org/err0028 (src/verlet.cpp:60)
-1802.3537920586425116
Step        CPULeft          Temp          PotEng          Fmax        c_min_dist    c_max_gamma       Press          Volume        Density          Pxx            Pyy            Pzz            Pxy            Pxz            Pyz
50000   0              467.54205     -1802.3538      1.6983445      2.456664       0.73458459     230.86489      8610.3634      2.5051154      2030.0844     -985.10772     -352.38199      750.75869      305.03604     -657.17473
Loop time of 0.000179598 on 1 procs for 0 steps with 500 atoms

unfix fix_print
