LAMMPS (29 Aug 2024 - Development - patch_29Aug2024-453-g5b9cae1af4)

#-------------- INIT ---------------------
units		metal
dimension	3
boundary 	p p p
atom_style	atomic
variable 	dt equal 0.001
variable    HOME_FOLDER getenv HOME
#---------------- ATOM DEFINITION -------------------
read_data	Pt_surface-fcc-slab_and_O2.lammps-data
Reading data file ...
  orthogonal box = (0 0 0) to (11.087434 11.087434 49.8)
  reading atoms ...
  98 atoms

mass 1 58.6934  # Pt
mass 2 15.999   # O

pair_style grace pad_verbose
[GRACE] TF version: 2.15.1
[GRACE] Neighbour padding is ON, padding fraction: 0.01, max padding fraction before reduction: 0.2, max number of reduction(s): 10
pair_coeff * * /home/users/lysogy36/.cache/grace/MP-GRACE-2L-r6_29Aug2024 Pt O
[GRACE] Loading /home/users/lysogy36/.cache/grace/MP-GRACE-2L-r6_29Aug2024
[GRACE] Model loaded
[GRACE] Mapping LAMMPS atom type #1(Pt) -> ACE species type #59
[GRACE] Mapping LAMMPS atom type #2(O) -> ACE species type #51

neighbor	2.0 bin
neigh_modify	delay 0 every 1 check yes

# -------------------- min_dist --------------------
compute dist all pair/local dist
compute  min_dist all reduce  min c_dist inputs local

print "-------------- MINIMIZE  min_full ---------------------"

#reset_timestep	0
thermo_style custom step cpuremain temp pe  fmax c_min_dist press vol
thermo	1
thermo_modify flush yes
fix box_relax all box/relax aniso 0.0 vmax 0.05

min_style cg
minimize 0 1e-6 100 100

CITE-CITE-CITE-CITE-CITE-CITE-CITE-CITE-CITE-CITE-CITE-CITE-CITE

Your simulation uses code contributions which should be cited:

- Type Label Framework: https://doi.org/10.1021/acs.jpcb.3c08419

@Article{Gissinger24,
 author = {Jacob R. Gissinger, Ilia Nikiforov, Yaser Afshar, Brendon Waters, Moon-ki Choi, Daniel S. Karls, Alexander Stukowski, Wonpil Im, Hendrik Heinz, Axel Kohlmeyer, and Ellad B. Tadmor},
 title = {Type Label Framework for Bonded Force Fields in LAMMPS},
 journal = {J. Phys. Chem. B},
 year =    2024,
 volume =  128,
 number =  13,
 pages =   {3282â€“-3297}
}

CITE-CITE-CITE-CITE-CITE-CITE-CITE-CITE-CITE-CITE-CITE-CITE-CITE

 (src/min.cpp:219)
[GRACE] Atoms padding: new num. of atoms = 99 (incl. 1.010% fake atoms)
[GRACE] Neighbours padding: extending new num. of neighbours = 4333 (incl. 0.992% fake neighbours)
Step        CPULeft          Temp          PotEng          Fmax        c_min_dist       Press          Volume
0   0              0             -560.70801      0.79885614     1.245956       14255.83       6121.9738
[GRACE] Neighbours padding: extending new num. of neighbours = 5771 (incl. 0.988% fake neighbours)
Loop time of 6.72149 on 1 procs for 50 steps with 98 atoms

Minimization stats:
  Stopping criterion = max force evaluations
  Energy initial, next-to-last, final =
  Force two-norm initial, final = 102.25436 0.57997951
  Force max component initial, final = 86.565149 0.52372144
  Final line search alpha, max atom move = 0.11213984 0.058730038
  Iterations, force evaluations = 50 100

unfix box_relax

print "-------------- MD ---------------------"

#reset_timestep	0
timestep $(dt)
timestep 0.0010000000000000000208

# init T=2*T_target
velocity all create 100.0 123 mom yes rot yes dist gaussian

# thermostat + barostat
#fix 2 all npt temp 500 500 0.1 aniso 0 0 0.1

# thermostat
fix 2 all nvt temp 300 300 0.1

thermo_style custom step cpuremain temp pe fmax c_min_dist  press vol pxx pyy pzz pxy pxz pyz
thermo	10
thermo_modify flush yes
dump	mdmc_dump all custom 10 dump.mdmc.dump  id type element xu yu zu
dump_modify mdmc_dump element Pt O

run 1000
Step        CPULeft          Temp          PotEng          Fmax        c_min_dist       Press          Volume          Pxx            Pyy            Pzz            Pxy            Pxz            Pyz
50   0              100           -562.72419      0.10526087     1.2480999      260.36586      6307.8456      258.51097      189.85726      332.72934     -10.108809      8.9656833      23.598758
Averages over the last 51 of 101 rows, steps 550 to 1050:
Temp PotEng Fmax c_min_dist Press Volume Pxx Pyy Pzz Pxy Pxz Pyz
322.527 -563.44 2.39924 1.86884 -4078.25 6307.85 -6468.39 -5432.47 -333.881 145.3 -574.439 244.154
Loop time of 13.856 on 1 procs for 1000 steps with 98 atoms

unfix 2
undump mdmc_dump

[GRACE:debug, proc #0]: Data preparation timer: 532001 mcs, graph execution time: 2.92592e+07 mcs, data preparation time fraction: 1.79 %
